Version 4.1
SHEET 1 3268 1160
WIRE 1312 -592 1152 -592
WIRE 1488 -592 1392 -592
WIRE 3008 -544 2960 -544
WIRE 2720 -528 2704 -528
WIRE 1296 -512 1264 -512
WIRE 3008 -512 3008 -544
WIRE 1296 -448 1296 -512
WIRE 1152 -432 1152 -592
WIRE 1264 -432 1152 -432
WIRE 2720 -432 2720 -528
WIRE 1488 -416 1488 -592
WIRE 1488 -416 1328 -416
WIRE 1776 -416 1488 -416
WIRE 2688 -416 2464 -416
WIRE 1264 -400 1200 -400
WIRE 3008 -400 3008 -432
WIRE 3008 -400 2752 -400
WIRE 3104 -400 3008 -400
WIRE 2688 -384 2560 -384
WIRE 1296 -368 1296 -384
WIRE 768 -352 624 -352
WIRE 912 -352 832 -352
WIRE 976 -352 912 -352
WIRE 1152 -352 1152 -432
WIRE 1152 -352 1056 -352
WIRE 2464 -336 2464 -416
WIRE 2464 -336 2368 -336
WIRE 2720 -320 2720 -368
WIRE -336 -256 -400 -256
WIRE -288 -256 -336 -256
WIRE -128 -256 -128 -304
WIRE -128 -256 -208 -256
WIRE -128 -240 -128 -256
WIRE 1200 -240 1200 -400
WIRE 1760 -192 1728 -192
WIRE -480 -160 -480 -256
WIRE -336 -160 -336 -256
WIRE 912 -144 912 -352
WIRE 1728 -144 1728 -192
WIRE 1728 -144 912 -144
WIRE 2464 -128 2368 -128
WIRE 2992 -80 2944 -80
WIRE 2992 -32 2992 -80
WIRE 2704 64 2704 -16
WIRE 2464 80 2464 -128
WIRE 2672 80 2464 80
WIRE 2992 96 2992 48
WIRE 2992 96 2736 96
WIRE 3104 96 2992 96
WIRE 2560 112 2560 -384
WIRE 2560 112 2464 112
WIRE 2672 112 2560 112
WIRE 2704 192 2704 128
FLAG -432 -480 0
FLAG -272 -480 0
FLAG -432 -560 VCTRL
IOPIN -432 -560 Out
FLAG -272 -560 VIN_A
IOPIN -272 -560 Out
FLAG -128 -160 0
FLAG -128 -304 VDD
IOPIN -128 -304 Out
FLAG -336 -160 VCM
IOPIN -336 -160 Out
FLAG -480 -160 0
FLAG 2368 -336 VIN_A-
IOPIN 2368 -336 In
FLAG 2368 -128 VIN_A+
IOPIN 2368 -128 In
FLAG 2704 -528 VDD
IOPIN 2704 -528 In
FLAG 2704 -16 VDD
IOPIN 2704 -16 In
FLAG 2704 192 0
FLAG 2720 -320 0
FLAG 3104 -400 VPWM_P
IOPIN 3104 -400 Out
FLAG 3104 96 VPWM_N
IOPIN 3104 96 Out
FLAG 2960 -544 VDD
IOPIN 2960 -544 In
FLAG 2944 -80 VDD
IOPIN 2944 -80 In
FLAG 624 -352 VIN_A
IOPIN 624 -352 In
FLAG 1776 -416 VIN_A-
IOPIN 1776 -416 Out
FLAG 1760 -192 VIN_A+
IOPIN 1760 -192 Out
FLAG 1264 -512 VDD
IOPIN 1264 -512 In
FLAG 1200 -240 VCM
IOPIN 1200 -240 In
FLAG 1296 -368 0
FLAG 2464 192 0
DATAFLAG 3008 -400 ""
SYMBOL voltage -432 -576 R0
WINDOW 123 0 0 Left 0
WINDOW 39 0 0 Left 0
SYMATTR InstName VCTRL
SYMATTR Value 2.5
SYMBOL voltage -272 -576 R0
WINDOW 123 0 0 Left 0
WINDOW 39 0 0 Left 0
SYMATTR InstName Input
SYMATTR Value SINE(2.075 1.025 1k)
SYMBOL voltage -128 -256 R0
WINDOW 123 0 0 Left 0
WINDOW 39 0 0 Left 0
SYMATTR InstName VDD
SYMATTR Value 5
SYMBOL res -192 -272 R90
WINDOW 0 0 56 VBottom 2
WINDOW 3 32 56 VTop 2
SYMATTR InstName R1
SYMATTR Value 10K
SYMBOL res -384 -272 R90
WINDOW 0 0 56 VBottom 2
WINDOW 3 32 56 VTop 2
SYMATTR InstName R2
SYMATTR Value 10K
SYMBOL LM339 2752 -400 R0
SYMATTR InstName U7
SYMBOL LM339 2736 96 R0
SYMATTR InstName U8
SYMBOL res 2992 -528 R0
SYMATTR InstName RP_1
SYMATTR Value 1k
SYMBOL res 2976 -48 R0
SYMATTR InstName RP_2
SYMATTR Value 1k
SYMBOL cap 832 -368 R90
WINDOW 0 0 32 VBottom 2
WINDOW 3 32 32 VTop 2
SYMATTR InstName C2
SYMATTR Value 10µ
SYMBOL res 1072 -368 R90
WINDOW 0 0 56 VBottom 2
WINDOW 3 32 56 VTop 2
SYMATTR InstName R10
SYMATTR Value 10K
SYMBOL res 1408 -608 R90
WINDOW 0 0 56 VBottom 2
WINDOW 3 32 56 VTop 2
SYMATTR InstName R11
SYMATTR Value 10K
SYMBOL voltage 2464 96 R0
WINDOW 123 0 0 Left 0
WINDOW 39 0 0 Left 0
SYMATTR InstName V1
SYMATTR Value PULSE(0 5 0 5u 5u 0 10u)
SYMBOL MCP6001 1296 -416 M180
SYMATTR InstName U1
TEXT -496 216 Left 2 !.tran 5m
