Version 4.1
SHEET 1 3956 1408
WIRE -2720 -576 -2736 -576
WIRE -1920 -416 -2640 -416
WIRE -2464 -336 -2496 -336
WIRE -2288 -336 -2400 -336
WIRE -2112 -336 -2160 -336
WIRE -1968 -336 -2032 -336
WIRE -2736 -304 -2736 -576
WIRE -2736 -304 -2832 -304
WIRE -2640 -256 -2640 -416
WIRE -2608 -256 -2640 -256
WIRE -2496 -256 -2496 -336
WIRE -2496 -256 -2528 -256
WIRE -2464 -256 -2496 -256
WIRE -1904 -256 -2096 -256
WIRE -2288 -240 -2288 -336
WIRE -2288 -240 -2400 -240
WIRE -2256 -240 -2288 -240
WIRE -2160 -240 -2160 -336
WIRE -2160 -240 -2176 -240
WIRE -2128 -240 -2160 -240
WIRE -2544 -224 -2832 -224
WIRE -2528 -224 -2544 -224
WIRE -2464 -224 -2528 -224
WIRE -1984 -224 -2064 -224
WIRE -1968 -224 -1968 -336
WIRE -1968 -224 -1984 -224
WIRE -1920 -224 -1920 -416
WIRE -1920 -224 -1968 -224
WIRE -2128 -208 -2160 -208
WIRE -2528 -192 -2528 -224
WIRE -2160 -192 -2160 -208
WIRE -2160 -192 -2528 -192
WIRE -2432 -176 -2432 -208
WIRE -2432 -176 -2496 -176
WIRE -1984 -176 -1984 -224
WIRE -1904 -176 -1904 -256
WIRE -1888 -176 -1904 -176
WIRE -2288 -112 -2288 -240
WIRE -2288 -112 -2352 -112
WIRE 336 -96 -496 -96
WIRE -2352 -32 -2352 -112
WIRE -2224 -32 -2288 -32
WIRE -2208 -32 -2224 -32
WIRE -2128 -32 -2208 -32
WIRE -2000 -16 -2064 -16
WIRE -496 -16 -496 -96
WIRE -496 -16 -2000 -16
WIRE -2128 0 -2144 0
WIRE 2096 0 944 0
WIRE -2000 16 -2000 -16
WIRE 2096 16 2096 0
WIRE 336 64 336 -96
WIRE 336 64 128 64
WIRE 2528 64 2384 64
WIRE -2544 96 -2544 -224
WIRE -2224 96 -2224 48
WIRE -2224 96 -2544 96
WIRE -2144 96 -2144 0
WIRE -2144 96 -2224 96
WIRE 1280 96 128 96
WIRE 16 112 -144 112
WIRE -2096 144 -2096 16
WIRE -2000 144 -2000 96
WIRE -2000 144 -2096 144
WIRE -1904 144 -1904 -176
WIRE -1904 144 -2000 144
WIRE 2096 144 2096 16
WIRE 2096 144 1936 144
WIRE 2336 144 2096 144
WIRE 1696 176 1616 176
WIRE 1616 288 1616 176
WIRE 1744 288 1616 288
WIRE -144 304 -144 112
WIRE -144 304 -208 304
WIRE 80 304 -144 304
WIRE 1136 304 192 304
WIRE -496 336 -496 -16
WIRE 1616 368 1616 288
WIRE 1744 368 1744 288
WIRE 128 432 128 336
WIRE 1280 448 1280 96
WIRE 1552 448 1280 448
WIRE 1936 448 1936 144
WIRE 1936 448 1808 448
WIRE 2528 496 2528 64
WIRE 2528 496 2368 496
WIRE 2688 496 2688 304
WIRE 2688 496 2528 496
WIRE 2880 496 2688 496
WIRE 3184 496 2960 496
WIRE 3488 496 3184 496
WIRE 1552 544 1280 544
WIRE 1936 544 1808 544
WIRE 3184 624 3184 496
WIRE 2368 768 2368 496
WIRE 80 848 -16 848
WIRE 176 848 80 848
WIRE 608 848 288 848
WIRE 944 848 944 0
WIRE 944 848 720 848
WIRE 1936 848 1936 544
WIRE 2288 848 1936 848
WIRE 2320 848 2288 848
WIRE 816 928 784 928
WIRE 80 944 80 848
WIRE 224 944 80 944
WIRE 224 1040 224 944
WIRE 224 1040 144 1040
WIRE 784 1040 784 928
WIRE 720 1072 144 1072
WIRE 1280 1072 1280 544
WIRE 1280 1072 832 1072
WIRE -496 1088 -496 448
WIRE 32 1088 -496 1088
WIRE 2288 1248 2288 848
WIRE 1136 1360 1136 304
WIRE 2288 1360 2288 1248
WIRE 2288 1360 1136 1360
FLAG -272 304 0
FLAG -80 848 0
FLAG 2368 864 0
FLAG 1616 624 0
FLAG 1744 624 0
FLAG 32 1024 0
FLAG 656 816 0
FLAG 224 816 0
FLAG 16 48 0
FLAG 128 272 0
FLAG -2496 -96 0
FLAG -1808 -176 0
FLAG -2096 -192 0
FLAG -2832 -144 0
FLAG -2832 -384 0
FLAG -2432 -272 0
FLAG -2096 -48 0
FLAG -2288 -240 RAMP
FLAG -1984 -224 SCHMIDT
FLAG -2000 -16 PWM
FLAG -2208 -32 RAMP_B
FLAG 784 1104 0
FLAG -528 400 0
FLAG 16 80 Vdd
IOPIN 16 80 In
FLAG -2720 -576 Vdd
IOPIN -2720 -576 Out
FLAG 128 432 Vdd
IOPIN 128 432 In
FLAG -464 400 Vdd
IOPIN -464 400 In
FLAG 32 1056 Vdd
IOPIN 32 1056 In
FLAG 224 880 Vdd
IOPIN 224 880 In
FLAG 656 880 Vdd
IOPIN 656 880 In
FLAG 816 928 Vdd
IOPIN 816 928 In
FLAG 1696 176 Vdd
IOPIN 1696 176 In
FLAG 3184 688 0
FLAG 3488 496 Vout
IOPIN 3488 496 Out
FLAG 2096 16 Vgate_p
IOPIN 2096 16 Out
FLAG 2288 1248 Vgate_n
IOPIN 2288 1248 Out
FLAG 2688 304 Vsw
IOPIN 2688 304 Out
FLAG 2384 160 Vdd
IOPIN 2384 160 In
SYMBOL CD4069UB -496 384 R90
SYMATTR InstName U1
SYMBOL SN74AHC00 80 80 R180
SYMATTR InstName U2
SYMBOL SN74AHC00 96 1056 R180
SYMATTR InstName U3
SYMBOL CD4069UB 144 304 R180
SYMATTR InstName U4
SYMBOL CD4069UB 240 848 R180
SYMATTR InstName U5
SYMBOL CD4069UB 672 848 R180
SYMATTR InstName U6
SYMBOL nmos 2320 768 R0
SYMATTR InstName M1
SYMATTR Value NTMFS5C646NL
SYMBOL pmos 2336 64 R0
SYMATTR InstName M2
SYMATTR Value Si4427DY
SYMBOL ind 2864 512 R270
WINDOW 0 32 56 VTop 2
WINDOW 3 5 56 VBottom 2
SYMATTR InstName L1
SYMATTR Value 100µ
SYMATTR SpiceLine Rser=5
SYMBOL cap 3168 624 R0
SYMATTR InstName C3
SYMATTR Value 47µ
SYMBOL cap -208 288 R90
WINDOW 0 0 32 VBottom 2
WINDOW 3 32 32 VTop 2
SYMATTR InstName C1
SYMATTR Value 1n
SYMBOL CD4069UB 768 1072 R0
SYMATTR InstName U8
SYMBOL cap -16 832 R90
WINDOW 0 0 32 VBottom 2
WINDOW 3 32 32 VTop 2
SYMATTR InstName C2
SYMATTR Value 1n
SYMBOL PowerProducts\\LTC1693-1 1680 496 R0
SYMATTR InstName U7
SYMBOL res -2512 -272 R90
WINDOW 0 0 56 VBottom 2
WINDOW 3 32 56 VTop 2
SYMATTR InstName R3
SYMATTR Value 9.23k
SYMBOL res -2160 -256 R90
WINDOW 0 0 56 VBottom 2
WINDOW 3 32 56 VTop 2
SYMATTR InstName R4
SYMATTR Value 10K
SYMBOL res -2208 64 R180
WINDOW 0 36 76 Left 2
WINDOW 3 36 40 Left 2
SYMATTR InstName R_BIAS1
SYMATTR Value 10K
SYMBOL res -2128 -320 R270
WINDOW 0 32 56 VTop 2
WINDOW 3 0 56 VBottom 2
SYMATTR InstName R5
SYMATTR Value 50K
SYMBOL cap -2400 -352 R90
WINDOW 0 0 32 VBottom 2
WINDOW 3 32 32 VTop 2
SYMATTR InstName C4
SYMATTR Value 1n
SYMBOL cap -2288 -48 R90
WINDOW 0 0 32 VBottom 2
WINDOW 3 32 32 VTop 2
SYMATTR InstName C_BIAS1
SYMATTR Value 470n
SYMBOL voltage -2496 -192 R0
WINDOW 123 0 0 Left 0
WINDOW 39 0 0 Left 0
SYMATTR InstName V3
SYMATTR Value 5
SYMBOL voltage -1904 -176 R270
WINDOW 0 32 56 VTop 2
WINDOW 3 -32 56 VBottom 2
WINDOW 123 0 0 Left 0
WINDOW 39 0 0 Left 0
SYMATTR InstName V4
SYMATTR Value 5
SYMBOL voltage -2832 -288 R180
WINDOW 0 24 96 Left 2
WINDOW 3 24 16 Left 2
WINDOW 123 0 0 Left 0
WINDOW 39 0 0 Left 0
SYMATTR InstName V5
SYMATTR Value 5
SYMBOL res -2848 -320 R0
SYMATTR InstName R6
SYMATTR Value 10
SYMBOL res -2848 -240 R0
SYMATTR InstName R7
SYMATTR Value 10
SYMBOL res -1888 -192 R90
WINDOW 0 0 56 VBottom 2
WINDOW 3 32 56 VTop 2
SYMATTR InstName R8
SYMATTR Value 4.7K
SYMBOL MCP6001 -2432 -240 M180
SYMATTR InstName U9
SYMBOL LM339 -2064 -16 M180
SYMATTR InstName U10
SYMBOL LM339 -2064 -224 R0
SYMATTR InstName U11
SYMBOL res -2016 0 R0
SYMATTR InstName R9
SYMATTR Value 4.7K
TEXT -56 -40 Left 2 !.lib SN74AHC00.cir
TEXT 184 376 Left 2 !.lib CD4069UB.cir
TEXT -2816 0 Left 2 !.include LM339.lib
TEXT -2816 -32 Left 2 !.include MCP6001.lib
TEXT -3864 -808 Left 2 !* --- 1. FREQUENCY of RAMP and SQUARE ---\n.meas TRAN T_Ramp TRIG V(RAMP)=2.5 RISE=1 TARG V(RAMP)=2.5 RISE=2\n.meas TRAN F_Ramp PARAM 1/T_Ramp\n.meas TRAN T_Sqr TRIG V(SCHMIDT)=2.5 RISE=1 TARG V(SCHMIDT)=2.5 RISE=2\n.meas TRAN F_Sqr PARAM 1/T_Sqr\n \n* --- 2. AMPLITUDE of RAMP ---\n.meas TRAN Ramp_Max MAX V(RAMP)\n.meas TRAN Ramp_Min MIN V(RAMP)\n.meas TRAN Ramp_Amp PARAM Ramp_Max-Ramp_Min\n \n* --- 3. RAMP_B (After Capacitor) Stats ---\n.meas TRAN RB_Max MAX V(RAMP_B)\n.meas TRAN RB_Min MIN V(RAMP_B)\n.meas TRAN RB_Amp PARAM RB_Max-RB_Min\n.meas TRAN RB_Bias AVG V(RAMP_B)\n.meas TRAN T_RB TRIG V(RAMP_B)=2.5 RISE=1 TARG V(RAMP_B)=2.5 RISE=2\n.meas TRAN F_RB PARAM 1/T_RB\n \n* --- 4. PWM Measurements ---\n.meas TRAN T_PWM TRIG V(PWM)=2.5 RISE=1 TARG V(PWM)=2.5 RISE=2\n.meas TRAN F_PWM PARAM 1/T_PWM\n.meas TRAN T_On TRIG V(PWM)=2.5 RISE=1 TARG V(PWM)=2.5 FALL=1\n.meas TRAN DutyCycle PARAM (T_On/T_PWM)*100
TEXT -1064 376 Left 2 !.include CD4069UB.cir
TEXT -1064 432 Left 2 !.include SN74AHC00.cir
TEXT -1144 -1192 Left 2 !* -------- NON OVERLAP TIME --------\n.meas TRAN T_Gp_Fall TRIG V(Vgate_p)=2.5 FALL=1\n.meas TRAN T_Gn_Rise TARG V(Vgate_n)=2.5 RISE=1\n.meas TRAN DeadTime_HL PARAM T_Gn_Rise - T_Gp_Fall\n \n.meas TRAN T_Gn_Fall TRIG V(Vgate_n)=2.5 FALL=1\n.meas TRAN T_Gp_Rise TARG V(Vgate_p)=2.5 RISE=1\n.meas TRAN DeadTime_LH PARAM T_Gp_Rise - T_Gn_Fall\n \n* -------- VSW FREQUENCY --------\n.meas TRAN T_SW TRIG V(Vsw)=2.5 RISE=1 TARG V(Vsw)=2.5 RISE=2\n.meas TRAN F_SW PARAM 1/T_SW\n \n* -------- VSW DUTY --------\n.meas TRAN T_On_SW TRIG V(Vsw)=2.5 RISE=1 TARG V(Vsw)=2.5 FALL=1\n.meas TRAN Duty_SW PARAM (T_On_SW/T_SW)*100\n \n* -------- PROPAGATION DELAY --------\n.meas TRAN T_PWM_Rise TRIG V(Vpwm)=2.5 RISE=1\n.meas TRAN T_SW_Rise  TARG V(Vsw)=2.5 RISE=1\n.meas TRAN Prop_Delay PARAM T_SW_Rise - T_PWM_Rise\n \n* -------- VOUT --------\n.meas TRAN Vout_Avg AVG V(Vout)\n.meas TRAN Vout_Max MAX V(Vout)\n.meas TRAN Vout_Min MIN V(Vout)\n.meas TRAN Vout_Ripple PARAM Vout_Max - Vout_Min\n \n* -------- VERIFY D --------\n.meas TRAN D_from_Vout PARAM (Vout_Avg/5)*100
TEXT 3056 1168 Left 2 !.tran 0 10m 0 10u
